%Mem=8192MB
%NProcShared=4
%chk=62191.chk
#P AM1 Opt=(MaxCycle=900,InitialHarmonic=50000)

first AM1 optimization

-1  1
N          -0.78975         8.28079        22.20400
H          -1.60975         8.02579        22.75100
C          -0.13575         7.28179        21.62200
C          -0.62875         5.82679        21.79200
H          -1.47275         5.79479        22.32700
H           0.05524         5.26979        22.26300
H          -0.81075         5.40379        20.90400
C           1.04724         7.58379        20.89800
O           1.71124         6.56679        20.32300
C           1.49724         8.94279        20.73600
C           2.76123         9.34679        19.99700
H           3.11341        10.27627        19.88730
C           0.74124         9.97179        21.38900
C          -0.41375         9.59979        22.09900
H          -0.97175        10.30579        22.53500
C           1.15624        11.43679        21.33300
H           0.58024        11.99979        21.92500
H           2.11524        11.55279        21.59300
O           0.97324        11.84079        19.94500
P           1.84124        13.16079        19.49900
O           1.80124        14.19479        20.54000
O           1.22724        13.55479        18.16000
O           3.36624        12.67779        19.35000
C           4.25254         3.74799        20.87017
C           5.12694         4.49771        19.89563
O           4.33416         5.47345        19.20366
C           4.96450         6.25025        18.27619
C           5.49820         7.50643        18.87775
C           4.47375         8.65409        18.84897
C           5.14473         9.91887        19.38396
N           3.25013         8.35768        19.57627
H           2.87343         7.44006        19.70307
O           5.00782         5.85334        17.10231
H           4.85930         2.98647        21.41382
H           3.42182         3.23370        20.32903
H           3.79830         4.44946        21.61083
H           5.95085         5.03238        20.43799
H           5.57120         3.79439        19.14344
H           5.79202         7.26365        19.93576
H           6.42404         7.79605        18.31408
H           3.87826         8.76643        17.89290
H           4.46542        10.79860        19.28484
H           6.08094        10.12187        18.80992
H           5.41371         9.78677        20.45821

--link1--
%chk=62191.chk
#P HF/6-31G* Opt=(MaxCycle=900,InitialHarmonic=50000) SCF=(Tight,MaxCycle=900) Geom=AllCheck Guess=Read Pop=MK IOp(6/33=2,6/41=10,6/42=17)
