%Mem=8192MB
%NProcShared=4
%chk=72595.chk
#P AM1 Opt=(MaxCycle=900,InitialHarmonic=50000)

first AM1 optimization

-1  1
N          -0.79000         8.28100        22.20400
H          -1.61000         8.02600        22.75100
C          -0.13600         7.28200        21.62200
C          -0.62900         5.82700        21.79200
H          -1.47300         5.79500        22.32700
H           0.05500         5.27000        22.26300
H          -0.81100         5.40400        20.90400
C           1.04700         7.58400        20.89800
O           1.71100         6.56700        20.32300
C           1.49700         8.94300        20.73600
C           2.76099         9.34701        19.99700
H           3.11462        10.27581        19.88631
C           0.74100         9.97200        21.38900
C          -0.41400         9.60000        22.09900
H          -0.97200        10.30600        22.53500
C           1.15600        11.43700        21.33300
H           0.58000        12.00000        21.92500
H           2.11500        11.55300        21.59300
O           0.97300        11.84100        19.94500
P           1.84100        13.16100        19.49900
O           1.80100        14.19500        20.54000
O           1.22700        13.55500        18.16000
O           3.36600        12.67800        19.35000
C           5.44736         7.49809        18.84867
C           6.45193         7.36632        19.80954
C           5.26315         6.48262        17.90102
C           7.29165         6.25139        19.79685
C           6.10208         5.37005        17.88974
C           7.12089         5.25459        18.83651
C           4.47380         8.65781        18.84919
C           5.13861         9.94306        19.33698
N           3.24737         8.35393        19.57737
H           2.87102         7.43614        19.70394
H           6.59084         8.14659        20.57527
H           4.45500         6.56899        17.15612
H           8.08912         6.15833        20.55194
H           5.95696         4.58156        17.13339
H           7.78519         4.37596        18.82688
H           3.87630         8.77052        17.88991
H           5.35613         9.90930        20.43123
H           4.47462        10.81843        19.13842
H           6.09641        10.08869        18.78362

--link1--
%chk=72595.chk
#P HF/6-31G* Opt=(MaxCycle=900,InitialHarmonic=50000) SCF=(Tight,MaxCycle=900) Geom=AllCheck Guess=Read Pop=MK IOp(6/33=2,6/41=10,6/42=17)
